CM Biquad antenna for 2.4 Ghz
CE
GW 0 1 0. -0.45 -0.45 0. -0.45 -0.40 0.0082
GW 0 1 0. -0.45 -0.45 0. -0.40 -0.45 0.0082
GM 0 17 0. 0. 0. 0. 0. 0.05
GW 0 1 0. -0.45 0.45 0 -0.40 0.45 0.0082
GM 0 17 0. 0. 0. 0. 0.05 0.
GW 0 18 0. 0.45 0.45 0. 0.45 -0.45 0.0082
GW 0 18 0.05 -0.45 -0.45 0.05 -0.45 0.45 0.0082
GW 0 18 0.10 -0.45 -0.45 0.10 -0.45 0.45 0.0082
GW 0 18 0.15 -0.45 -0.45 0.15 -0.45 0.45 0.0082
GW 0 18 0.20 -0.45 -0.45 0.20 -0.45 0.45 0.0082
GW 0 18 0.25 -0.45 -0.45 0.25 -0.45 0.45 0.0082
GW 0 18 0.05 0.45 -0.45 0.05 0.45 0.45 0.0082
GW 0 18 0.10 0.45 -0.45 0.10 0.45 0.45 0.0082
GW 0 18 0.15 0.45 -0.45 0.15 0.45 0.45 0.0082
GW 0 18 0.20 0.45 -0.45 0.20 0.45 0.45 0.0082
GW 0 18 0.25 0.45 -0.45 0.25 0.45 0.45 0.0082
GW 0 5 0.0 -0.45 -0.45 0.25 -0.45 -0.45 0.0082
GW 0 5 0.0 -0.45 -0.40 0.25 -0.45 -0.40 0.0082
GW 0 5 0.0 -0.45 -0.35 0.25 -0.45 -0.35 0.0082
GW 0 5 0.0 -0.45 -0.30 0.25 -0.45 -0.30 0.0082
GW 0 5 0.0 -0.45 -0.25 0.25 -0.45 -0.25 0.0082
GW 0 5 0.0 -0.45 -0.20 0.25 -0.45 -0.20 0.0082
GW 0 5 0.0 -0.45 -0.15 0.25 -0.45 -0.15 0.0082
GW 0 5 0.0 -0.45 -0.10 0.25 -0.45 -0.10 0.0082
GW 0 5 0.0 -0.45 -0.05 0.25 -0.45 -0.05 0.0082
GW 0 5 0.0 -0.45 0.00 0.25 -0.45 0.00 0.0082
GW 0 5 0.0 -0.45 0.05 0.25 -0.45 0.05 0.0082
GW 0 5 0.0 -0.45 0.10 0.25 -0.45 0.10 0.0082
GW 0 5 0.0 -0.45 0.15 0.25 -0.45 0.15 0.0082
GW 0 5 0.0 -0.45 0.20 0.25 -0.45 0.20 0.0082
GW 0 5 0.0 -0.45 0.25 0.25 -0.45 0.25 0.0082
GW 0 5 0.0 -0.45 0.30 0.25 -0.45 0.30 0.0082
GW 0 5 0.0 -0.45 0.35 0.25 -0.45 0.35 0.0082
GW 0 5 0.0 -0.45 0.40 0.25 -0.45 0.40 0.0082
GW 0 5 0.0 -0.45 0.45 0.25 -0.45 0.45 0.0082
GW 0 5 0.0 0.45 -0.45 0.25 0.45 -0.45 0.0082
GW 0 5 0.0 0.45 -0.40 0.25 0.45 -0.40 0.0082
GW 0 5 0.0 0.45 -0.35 0.25 0.45 -0.35 0.0082
GW 0 5 0.0 0.45 -0.30 0.25 0.45 -0.30 0.0082
GW 0 5 0.0 0.45 -0.25 0.25 0.45 -0.25 0.0082
GW 0 5 0.0 0.45 -0.20 0.25 0.45 -0.20 0.0082
GW 0 5 0.0 0.45 -0.15 0.25 0.45 -0.15 0.0082
GW 0 5 0.0 0.45 -0.10 0.25 0.45 -0.10 0.0082
GW 0 5 0.0 0.45 -0.05 0.25 0.45 -0.05 0.0082
GW 0 5 0.0 0.45 0.00 0.25 0.45 0.00 0.0082
GW 0 5 0.0 0.45 0.05 0.25 0.45 0.05 0.0082
GW 0 5 0.0 0.45 0.10 0.25 0.45 0.10 0.0082
GW 0 5 0.0 0.45 0.15 0.25 0.45 0.15 0.0082
GW 0 5 0.0 0.45 0.20 0.25 0.45 0.20 0.0082
GW 0 5 0.0 0.45 0.25 0.25 0.45 0.25 0.0082
GW 0 5 0.0 0.45 0.30 0.25 0.45 0.30 0.0082
GW 0 5 0.0 0.45 0.35 0.25 0.45 0.35 0.0082
GW 0 5 0.0 0.45 0.40 0.25 0.45 0.40 0.0082
GW 0 5 0.0 0.45 0.45 0.25 0.45 0.45 0.0082
GW 1 11 0.1221 +0.0050 0.0 0.1221 .182 .182 0.0048
GW 2 11 0.1221 .182 .182 0.1221 0 .364 0.0048
GW 3 11 0.1221 0 .364 0.1221 -.182 .182 0.0048
GW 4 11 0.1221 -.182 .182 0.1221 -0.0050 0.0 0.0048
GW 5 11 0.1221 -0.0050 0.0 0.1221 -.182 -.182 0.0048
GW 6 11 0.1221 -.182 -.182 0.1221 0.0 -.364 0.0048
GW 7 11 0.1221 0.0 -.364 0.1221 .182 -.182 0.0048
GW 8 11 0.1221 .182 -.182 0.1221 +0.0050 0.0 0.0048
GW 9 1 0.1221 -0.0050 0.0 0.1221 +0.0050 0.0 0.0048
GS     0     0  .125	 000E+00  0.00000E+00  0.00000E+00  0.00000E+00  0.00000E+00  0.00000E+00
GE 0
FR 0 1 0 0 2400.  0
EX 0 9 1 0000 1.0 0
RP 0 73 73 1000 -90. 90. 5. 5. 10000.
XQ
EN

CM
CE